Version 4
SHEET 1 1220 680
WIRE 320 -160 256 -160
WIRE 448 -160 400 -160
WIRE 256 -96 256 -160
WIRE 256 -96 32 -96
WIRE 320 -96 256 -96
WIRE 448 -96 400 -96
WIRE 544 -96 448 -96
WIRE 640 -96 544 -96
WIRE 448 -64 448 -96
WIRE 544 -64 544 -96
WIRE 32 -16 32 -96
WIRE 640 16 640 -96
WIRE 32 96 32 64
WIRE 32 240 32 176
FLAG 32 240 0
FLAG 640 96 0
FLAG 448 0 0
FLAG 544 0 0
SYMBOL voltage 32 80 R0
WINDOW 39 0 0 Left 2
SYMATTR InstName V1
SYMATTR Value 2.5
SYMATTR Value2 AC 0
SYMBOL res 624 0 R0
SYMATTR InstName R1
SYMATTR Value 2k
SYMBOL bv 32 -32 R0
SYMATTR InstName B1
SYMATTR Value V=RAND(1000000*time)
SYMBOL ind 304 -80 R270
WINDOW 0 32 56 VTop 2
WINDOW 3 5 56 VBottom 2
SYMATTR InstName L1
SYMATTR Value 2µ2
SYMATTR SpiceLine Rser=250m
SYMBOL cap 432 -64 R0
SYMATTR InstName C1
SYMATTR Value 4µ7
SYMBOL cap 528 -64 R0
SYMATTR InstName C2
SYMATTR Value 100n
SYMBOL res 304 -144 R270
WINDOW 0 32 56 VTop 2
WINDOW 3 0 56 VBottom 2
SYMATTR InstName R2
SYMATTR Value 250m
TEXT -2 264 Left 2 !.tran 2m startup
